Using: /usr/bin/time -p /applications/synopsys/2010.03/hspice/hspice/linux/hspice lab1.lis
 ****** HSPICE -- D-2010.03 32-BIT (Feb 23 2010) linux ******                   
  Copyright (C) 2010 Synopsys, Inc. All Rights Reserved.                        
  Unpublished-rights reserved under US copyright laws.
  This program is protected by law and is subject to the 
  terms and conditions of the license agreement from Synopsys.
  Use of this program is your acceptance to be bound by the 
  license agreement. HSPICE is the trademark of Synopsys, Inc.
  Input File: lab1.lis                                                          
 lic:  
 lic: FLEXlm: v8.5b 
 lic: USER:   tnguyen1             HOSTNAME: linux60815 
 lic: HOSTID: 3417ebb7eae0         PID:      27948 
 lic: Using FLEXlm license file: 
 lic: 27000@hoth 
 lic: Checkout 1 hspice 
 lic: License/Maintenance for hspice will expire on 13-oct-2017/2016.06 
 lic: FLOATING license(s) on SERVER hoth 
 lic:   
 Init: read install configuration file: /applications/synopsys/2010.03/hspice/hspice/meta.cfg
1****** HSPICE -- D-2010.03 32-BIT (Feb 23 2010) linux ******                   
 ******  
 nmos transistor

  ******  mos   model parameters tnom=  25.000 temp=  25.000 *****
 ***************************************************************************
 *** common model parameters  model name:   0:nch      model type:nmos   ***
 ***************************************************************************
     names  values   units     names  values   units     names  values   units
     -----  ------   -----     -----  ------   -----     -----  ------   -----

   1*** geometry parameters ***
       ld=   0.    meters      lmlt=   1.00                wd=   0.    meters 
     wmlt=   1.00                xl=   0.    meters        xw=   0.    meters 
     lref=   0.    meters      wref=   0.    meters      lref=   0.    meters 
     wref=   0.    meters     xlref=   0.    meters     xwref=   0.    meters 
     lmin=   0.    meters      wmin=   0.    meters      lmax=   0.    meters 
     wmax=   0.    meters 

   2*** threshold voltage parameters ***
      vto= 133.88m volts        nss=   0.    1/cm**2      tpg=   1.00         
      phi= 579.84m volts      gamma= 527.63m v**0.5      bulk=  gnd           
    ngate=   0.    cm**3       nsub= 1.0e+15 1/cm**3   delvto=   0.    volts  

   3*** gate overlap capacitance parameters ***
     cgbo=   0.    f/meter     cgdo=   0.    f/meter     cgso=   0.    f/meter
     meto=   0.    meters 

   4*** gate capacitance parameters ***
    capop=   2.00               cf1=   0.    volts        cf2= 100.00m volts  
      cf3=   1.00  volts        cf4=  50.00               cf5= 666.67m        
      cf6= 500.00               xqc= 500.00m              tox= 100.00n meters 
      cox= 345.31u f/m**2 

   5*** diffusion parasitic parameters ***
      acm=   0.                  is=  10.00f amps          js=   0.    a/m**2 
      jsw=   0.    amp/m        nds=   1.00               cbd=   0.    farad  
      cbs=   0.    farad         cj= 101.85u f/m**2      cjsw=   0.    f/m    
   cjgate=   0.    f/m           mj= 500.00m             mjsw= 330.00m        
       pb= 800.00m volts        php= 800.00m volts         tt=   0.    secs   
     hdif=   0.    meters      ldif=   0.    meters        rd=   0.    ohms   
       rs=   0.    ohms         rsh=   0.    ohms/sq       fc=   0.           
    alpha=   0.                 vcr=   0.    volts      iirat=   0.           
      rdc=   0.    ohms         rsc=   0.    ohms           n=   1.00         
     vnds=  -1.00  volts  

   6*** temperature effect parameters ***
     tlev=   0.               tlevc=   0.                  eg=   1.11  ev     
     gap1= 702.00u ev/deg      gap2=   1.11k deg          xti=   0.           
      bex=  -1.50               tcv=   0.    v/deg k      trd=   0.    /deg   
      trs=   0.    /deg         cta=   0.    /deg         ctp=   0.    /deg   

   7*** noise parameters ***
       kf=   0.                  af=   1.00              nlev=   2.00         
   gdsnoi=   1.00         

   ***  level  1  model parameters  ***

   lambda=   0.    /v            kp=  20.72u a/v**2 
 
      
 *****************************************************************
 ******  option summary
 ******
 runlvl  = 3         bypass  = 2         
 ******  
 nmos transistor

  ******  dc transfer curves tnom=  25.000 temp=  25.000 *****

   *** source        0:vgs              =    1.0000        ***


a


      volt       id(m1)
 (a       )       0.           20.0000u      40.0000u      60.0000u     80.0000u
                      +             +             +             +             + 
    0.         0.    -a------+------+------+------+------+------+------+------+-
  100.0000m   16.909u +      +    a +      +      +      +      +      +      + 
  200.0000m   31.746u +      +      +      +a     +      +      +      +      + 
  300.0000m   44.511u +      +      +      +      +  a   +      +      +      + 
  400.0000m   55.205u +      +      +      +      +      +   a  +      +      + 
  500.0000m   63.826u +      +      +      +      +      +      +  a   +      + 
  600.0000m   70.376u +      +      +      +      +      +      +      a      + 
  700.0000m   74.854u +      +      +      +      +      +      +      +  a   + 
  800.0000m   77.259u +      +      +      +      +      +      +      +    a + 
  900.0000m   77.712u +      +      +      +      +      +      +      +    a + 
    1.0000    77.712u-+------+------+------+------+------+------+------+----a-+-
    1.1000    77.712u +      +      +      +      +      +      +      +    a + 
    1.2000    77.712u +      +      +      +      +      +      +      +    a + 
    1.3000    77.712u +      +      +      +      +      +      +      +    a + 
    1.4000    77.712u +      +      +      +      +      +      +      +    a + 
    1.5000    77.712u +      +      +      +      +      +      +      +    a + 
    1.6000    77.712u +      +      +      +      +      +      +      +    a + 
    1.7000    77.712u +      +      +      +      +      +      +      +    a + 
    1.8000    77.712u +      +      +      +      +      +      +      +    a + 
    1.9000    77.712u +      +      +      +      +      +      +      +    a + 
    2.0000    77.712u-+------+------+------+------+------+------+------+----a-+-
    2.1000    77.712u +      +      +      +      +      +      +      +    a + 
    2.2000    77.712u +      +      +      +      +      +      +      +    a + 
    2.3000    77.712u +      +      +      +      +      +      +      +    a + 
    2.4000    77.712u +      +      +      +      +      +      +      +    a + 
    2.5000    77.712u +      +      +      +      +      +      +      +    a + 
    2.6000    77.712u +      +      +      +      +      +      +      +    a + 
    2.7000    77.712u +      +      +      +      +      +      +      +    a + 
    2.8000    77.712u +      +      +      +      +      +      +      +    a + 
    2.9000    77.712u +      +      +      +      +      +      +      +    a + 
    3.0000    77.712u-+------+------+------+------+------+------+------+----a-+-
    3.1000    77.712u +      +      +      +      +      +      +      +    a + 
    3.2000    77.712u +      +      +      +      +      +      +      +    a + 
    3.3000    77.712u +      +      +      +      +      +      +      +    a + 
    3.4000    77.712u +      +      +      +      +      +      +      +    a + 
    3.5000    77.712u +      +      +      +      +      +      +      +    a + 
    3.6000    77.712u +      +      +      +      +      +      +      +    a + 
    3.7000    77.712u +      +      +      +      +      +      +      +    a + 
    3.8000    77.712u +      +      +      +      +      +      +      +    a + 
    3.9000    77.712u +      +      +      +      +      +      +      +    a + 
    4.0000    77.712u-+------+------+------+------+------+------+------+----a-+-
    4.1000    77.712u +      +      +      +      +      +      +      +    a + 
    4.2000    77.712u +      +      +      +      +      +      +      +    a + 
    4.3000    77.712u +      +      +      +      +      +      +      +    a + 
    4.4000    77.712u +      +      +      +      +      +      +      +    a + 
    4.5000    77.712u +      +      +      +      +      +      +      +    a + 
    4.6000    77.712u +      +      +      +      +      +      +      +    a + 
    4.7000    77.712u +      +      +      +      +      +      +      +    a + 
    4.8000    77.712u +      +      +      +      +      +      +      +    a + 
    4.9000    77.712u +      +      +      +      +      +      +      +    a + 
    5.0000    77.712u-+------+------+------+------+------+------+------+----a-+-
                      +             +             +             +             + 

b

 ******  
 nmos transistor

  ******  dc transfer curves tnom=  25.000 temp=  25.000 *****

   *** source        0:vgs              =    2.0000        ***


a


      volt       id(m1)
 (a       )       0.          100.0000u     200.0000u     300.0000u    400.0000u
                      +             +             +             +             + 
    0.         0.    -a------+------+------+------+------+------+------+------+-
  100.0000m   37.628u +    a +      +      +      +      +      +      +      + 
  200.0000m   73.184u +      +  a   +      +      +      +      +      +      + 
  300.0000m  106.668u +      +      +a     +      +      +      +      +      + 
  400.0000m  138.080u +      +      +    a +      +      +      +      +      + 
  500.0000m  167.421u +      +      +      + a    +      +      +      +      + 
  600.0000m  194.689u +      +      +      +     a+      +      +      +      + 
  700.0000m  219.886u +      +      +      +      +  a   +      +      +      + 
  800.0000m  243.010u +      +      +      +      +     a+      +      +      + 
  900.0000m  264.063u +      +      +      +      +      + a    +      +      + 
    1.0000   283.044u-+------+------+------+------+------+----a-+------+------+-
    1.1000   299.953u +      +      +      +      +      +      a      +      + 
    1.2000   314.790u +      +      +      +      +      +      + a    +      + 
    1.3000   327.556u +      +      +      +      +      +      +   a  +      + 
    1.4000   338.249u +      +      +      +      +      +      +    a +      + 
    1.5000   346.870u +      +      +      +      +      +      +      a      + 
    1.6000   353.420u +      +      +      +      +      +      +      a      + 
    1.7000   357.898u +      +      +      +      +      +      +      +a     + 
    1.8000   360.304u +      +      +      +      +      +      +      +a     + 
    1.9000   360.756u +      +      +      +      +      +      +      + a    + 
    2.0000   360.756u-+------+------+------+------+------+------+------+-a----+-
    2.1000   360.756u +      +      +      +      +      +      +      + a    + 
    2.2000   360.756u +      +      +      +      +      +      +      + a    + 
    2.3000   360.756u +      +      +      +      +      +      +      + a    + 
    2.4000   360.756u +      +      +      +      +      +      +      + a    + 
    2.5000   360.756u +      +      +      +      +      +      +      + a    + 
    2.6000   360.756u +      +      +      +      +      +      +      + a    + 
    2.7000   360.756u +      +      +      +      +      +      +      + a    + 
    2.8000   360.756u +      +      +      +      +      +      +      + a    + 
    2.9000   360.756u +      +      +      +      +      +      +      + a    + 
    3.0000   360.756u-+------+------+------+------+------+------+------+-a----+-
    3.1000   360.756u +      +      +      +      +      +      +      + a    + 
    3.2000   360.756u +      +      +      +      +      +      +      + a    + 
    3.3000   360.756u +      +      +      +      +      +      +      + a    + 
    3.4000   360.756u +      +      +      +      +      +      +      + a    + 
    3.5000   360.756u +      +      +      +      +      +      +      + a    + 
    3.6000   360.756u +      +      +      +      +      +      +      + a    + 
    3.7000   360.756u +      +      +      +      +      +      +      + a    + 
    3.8000   360.756u +      +      +      +      +      +      +      + a    + 
    3.9000   360.756u +      +      +      +      +      +      +      + a    + 
    4.0000   360.756u-+------+------+------+------+------+------+------+-a----+-
    4.1000   360.756u +      +      +      +      +      +      +      + a    + 
    4.2000   360.756u +      +      +      +      +      +      +      + a    + 
    4.3000   360.756u +      +      +      +      +      +      +      + a    + 
    4.4000   360.756u +      +      +      +      +      +      +      + a    + 
    4.5000   360.756u +      +      +      +      +      +      +      + a    + 
    4.6000   360.756u +      +      +      +      +      +      +      + a    + 
    4.7000   360.756u +      +      +      +      +      +      +      + a    + 
    4.8000   360.756u +      +      +      +      +      +      +      + a    + 
    4.9000   360.756u +      +      +      +      +      +      +      + a    + 
    5.0000   360.756u-+------+------+------+------+------+------+------+-a----+-
                      +             +             +             +             + 

b

 ******  
 nmos transistor

  ******  dc transfer curves tnom=  25.000 temp=  25.000 *****

   *** source        0:vgs              =    3.0000        ***


a


      volt       id(m1)
 (a       )    -500.0000u       0.          500.0000u       1.0000m      1.5000m
                      +             +             +             +             + 
    0.         0.    -+------+------a------+------+------+------+------+------+-
  100.0000m   58.347u +      +      + a    +      +      +      +      +      + 
  200.0000m  114.622u +      +      +  a   +      +      +      +      +      + 
  300.0000m  168.825u +      +      +    a +      +      +      +      +      + 
  400.0000m  220.956u +      +      +     a+      +      +      +      +      + 
  500.0000m  271.015u +      +      +      +a     +      +      +      +      + 
  600.0000m  319.002u +      +      +      + a    +      +      +      +      + 
  700.0000m  364.918u +      +      +      +  a   +      +      +      +      + 
  800.0000m  408.761u +      +      +      +   a  +      +      +      +      + 
  900.0000m  450.533u +      +      +      +     a+      +      +      +      + 
    1.0000   490.233u-+------+------+------+------a------+------+------+------+-
    1.1000   527.861u +      +      +      +      +a     +      +      +      + 
    1.2000   563.417u +      +      +      +      + a    +      +      +      + 
    1.3000   596.901u +      +      +      +      +  a   +      +      +      + 
    1.4000   628.313u +      +      +      +      +   a  +      +      +      + 
    1.5000   657.653u +      +      +      +      +   a  +      +      +      + 
    1.6000   684.922u +      +      +      +      +    a +      +      +      + 
    1.7000   710.118u +      +      +      +      +     a+      +      +      + 
    1.8000   733.243u +      +      +      +      +      a      +      +      + 
    1.9000   754.296u +      +      +      +      +      a      +      +      + 
    2.0000   773.277u-+------+------+------+------+------+a-----+------+------+-
    2.1000   790.186u +      +      +      +      +      +a     +      +      + 
    2.2000   805.023u +      +      +      +      +      + a    +      +      + 
    2.3000   817.788u +      +      +      +      +      + a    +      +      + 
    2.4000   828.482u +      +      +      +      +      + a    +      +      + 
    2.5000   837.103u +      +      +      +      +      + a    +      +      + 
    2.6000   843.653u +      +      +      +      +      +  a   +      +      + 
    2.7000   848.131u +      +      +      +      +      +  a   +      +      + 
    2.8000   850.536u +      +      +      +      +      +  a   +      +      + 
    2.9000   850.989u +      +      +      +      +      +  a   +      +      + 
    3.0000   850.989u-+------+------+------+------+------+--a---+------+------+-
    3.1000   850.989u +      +      +      +      +      +  a   +      +      + 
    3.2000   850.989u +      +      +      +      +      +  a   +      +      + 
    3.3000   850.989u +      +      +      +      +      +  a   +      +      + 
    3.4000   850.989u +      +      +      +      +      +  a   +      +      + 
    3.5000   850.989u +      +      +      +      +      +  a   +      +      + 
    3.6000   850.989u +      +      +      +      +      +  a   +      +      + 
    3.7000   850.989u +      +      +      +      +      +  a   +      +      + 
    3.8000   850.989u +      +      +      +      +      +  a   +      +      + 
    3.9000   850.989u +      +      +      +      +      +  a   +      +      + 
    4.0000   850.989u-+------+------+------+------+------+--a---+------+------+-
    4.1000   850.989u +      +      +      +      +      +  a   +      +      + 
    4.2000   850.989u +      +      +      +      +      +  a   +      +      + 
    4.3000   850.989u +      +      +      +      +      +  a   +      +      + 
    4.4000   850.989u +      +      +      +      +      +  a   +      +      + 
    4.5000   850.989u +      +      +      +      +      +  a   +      +      + 
    4.6000   850.989u +      +      +      +      +      +  a   +      +      + 
    4.7000   850.989u +      +      +      +      +      +  a   +      +      + 
    4.8000   850.989u +      +      +      +      +      +  a   +      +      + 
    4.9000   850.989u +      +      +      +      +      +  a   +      +      + 
    5.0000   850.989u-+------+------+------+------+------+--a---+------+------+-
                      +             +             +             +             + 

b

 ******  
 nmos transistor

  ******  dc transfer curves tnom=  25.000 temp=  25.000 *****

   *** source        0:vgs              =    4.0000        ***


a


      volt       id(m1)
 (a       )       0.          500.0000u       1.0000m       1.5000m      2.0000m
                      +             +             +             +             + 
    0.         0.    -a------+------+------+------+------+------+------+------+-
  100.0000m   79.066u + a    +      +      +      +      +      +      +      + 
  200.0000m  156.059u +   a  +      +      +      +      +      +      +      + 
  300.0000m  230.981u +     a+      +      +      +      +      +      +      + 
  400.0000m  303.831u +      + a    +      +      +      +      +      +      + 
  500.0000m  374.609u +      +  a   +      +      +      +      +      +      + 
  600.0000m  443.315u +      +    a +      +      +      +      +      +      + 
  700.0000m  509.950u +      +      a      +      +      +      +      +      + 
  800.0000m  574.512u +      +      + a    +      +      +      +      +      + 
  900.0000m  637.003u +      +      +   a  +      +      +      +      +      + 
    1.0000   697.421u-+------+------+-----a+------+------+------+------+------+-
    1.1000   755.768u +      +      +      a      +      +      +      +      + 
    1.2000   812.043u +      +      +      + a    +      +      +      +      + 
    1.3000   866.246u +      +      +      +  a   +      +      +      +      + 
    1.4000   918.377u +      +      +      +    a +      +      +      +      + 
    1.5000   968.436u +      +      +      +     a+      +      +      +      + 
    1.6000     1.016m +      +      +      +      a      +      +      +      + 
    1.7000     1.062m +      +      +      +      + a    +      +      +      + 
    1.8000     1.106m +      +      +      +      +  a   +      +      +      + 
    1.9000     1.148m +      +      +      +      +   a  +      +      +      + 
    2.0000     1.188m-+------+------+------+------+----a-+------+------+------+-
    2.1000     1.225m +      +      +      +      +     a+      +      +      + 
    2.2000     1.261m +      +      +      +      +      a      +      +      + 
    2.3000     1.294m +      +      +      +      +      +a     +      +      + 
    2.4000     1.326m +      +      +      +      +      + a    +      +      + 
    2.5000     1.355m +      +      +      +      +      +  a   +      +      + 
    2.6000     1.382m +      +      +      +      +      +   a  +      +      + 
    2.7000     1.408m +      +      +      +      +      +   a  +      +      + 
    2.8000     1.431m +      +      +      +      +      +    a +      +      + 
    2.9000     1.452m +      +      +      +      +      +     a+      +      + 
    3.0000     1.471m-+------+------+------+------+------+-----a+------+------+-
    3.1000     1.488m +      +      +      +      +      +      a      +      + 
    3.2000     1.502m +      +      +      +      +      +      a      +      + 
    3.3000     1.515m +      +      +      +      +      +      a      +      + 
    3.4000     1.526m +      +      +      +      +      +      +a     +      + 
    3.5000     1.535m +      +      +      +      +      +      +a     +      + 
    3.6000     1.541m +      +      +      +      +      +      +a     +      + 
    3.7000     1.546m +      +      +      +      +      +      +a     +      + 
    3.8000     1.548m +      +      +      +      +      +      +a     +      + 
    3.9000     1.548m +      +      +      +      +      +      +a     +      + 
    4.0000     1.548m-+------+------+------+------+------+------+a-----+------+-
    4.1000     1.548m +      +      +      +      +      +      +a     +      + 
    4.2000     1.548m +      +      +      +      +      +      +a     +      + 
    4.3000     1.548m +      +      +      +      +      +      +a     +      + 
    4.4000     1.548m +      +      +      +      +      +      +a     +      + 
    4.5000     1.548m +      +      +      +      +      +      +a     +      + 
    4.6000     1.548m +      +      +      +      +      +      +a     +      + 
    4.7000     1.548m +      +      +      +      +      +      +a     +      + 
    4.8000     1.548m +      +      +      +      +      +      +a     +      + 
    4.9000     1.548m +      +      +      +      +      +      +a     +      + 
    5.0000     1.548m-+------+------+------+------+------+------+a-----+------+-
                      +             +             +             +             + 

b

 ******  
 nmos transistor

  ******  dc transfer curves tnom=  25.000 temp=  25.000 *****

   *** source        0:vgs              =    5.0000        ***


a


      volt       id(m1)
 (a       )       0.            1.0000m       2.0000m       3.0000m      4.0000m
                      +             +             +             +             + 
    0.         0.    -a------+------+------+------+------+------+------+------+-
  100.0000m   99.784u +a     +      +      +      +      +      +      +      + 
  200.0000m  197.497u +  a   +      +      +      +      +      +      +      + 
  300.0000m  293.138u +   a  +      +      +      +      +      +      +      + 
  400.0000m  386.707u +    a +      +      +      +      +      +      +      + 
  500.0000m  478.204u +      a      +      +      +      +      +      +      + 
  600.0000m  567.629u +      +a     +      +      +      +      +      +      + 
  700.0000m  654.982u +      + a    +      +      +      +      +      +      + 
  800.0000m  740.263u +      +  a   +      +      +      +      +      +      + 
  900.0000m  823.472u +      +    a +      +      +      +      +      +      + 
    1.0000   904.610u-+------+-----a+------+------+------+------+------+------+-
    1.1000   983.676u +      +      a      +      +      +      +      +      + 
    1.2000     1.061m +      +      +a     +      +      +      +      +      + 
    1.3000     1.136m +      +      + a    +      +      +      +      +      + 
    1.4000     1.208m +      +      +  a   +      +      +      +      +      + 
    1.5000     1.279m +      +      +   a  +      +      +      +      +      + 
    1.6000     1.348m +      +      +    a +      +      +      +      +      + 
    1.7000     1.415m +      +      +     a+      +      +      +      +      + 
    1.8000     1.479m +      +      +      a      +      +      +      +      + 
    1.9000     1.542m +      +      +      +a     +      +      +      +      + 
    2.0000     1.602m-+------+------+------+a-----+------+------+------+------+-
    2.1000     1.660m +      +      +      + a    +      +      +      +      + 
    2.2000     1.717m +      +      +      +  a   +      +      +      +      + 
    2.3000     1.771m +      +      +      +   a  +      +      +      +      + 
    2.4000     1.823m +      +      +      +    a +      +      +      +      + 
    2.5000     1.873m +      +      +      +    a +      +      +      +      + 
    2.6000     1.921m +      +      +      +     a+      +      +      +      + 
    2.7000     1.967m +      +      +      +      a      +      +      +      + 
    2.8000     2.011m +      +      +      +      a      +      +      +      + 
    2.9000     2.053m +      +      +      +      +a     +      +      +      + 
    3.0000     2.092m-+------+------+------+------+a-----+------+------+------+-
    3.1000     2.130m +      +      +      +      + a    +      +      +      + 
    3.2000     2.165m +      +      +      +      + a    +      +      +      + 
    3.3000     2.199m +      +      +      +      +  a   +      +      +      + 
    3.4000     2.230m +      +      +      +      +  a   +      +      +      + 
    3.5000     2.260m +      +      +      +      +   a  +      +      +      + 
    3.6000     2.287m +      +      +      +      +   a  +      +      +      + 
    3.7000     2.312m +      +      +      +      +   a  +      +      +      + 
    3.8000     2.335m +      +      +      +      +    a +      +      +      + 
    3.9000     2.356m +      +      +      +      +    a +      +      +      + 
    4.0000     2.375m-+------+------+------+------+----a-+------+------+------+-
    4.1000     2.392m +      +      +      +      +    a +      +      +      + 
    4.2000     2.407m +      +      +      +      +     a+      +      +      + 
    4.3000     2.420m +      +      +      +      +     a+      +      +      + 
    4.4000     2.431m +      +      +      +      +     a+      +      +      + 
    4.5000     2.439m +      +      +      +      +     a+      +      +      + 
    4.6000     2.446m +      +      +      +      +     a+      +      +      + 
    4.7000     2.450m +      +      +      +      +     a+      +      +      + 
    4.8000     2.453m +      +      +      +      +     a+      +      +      + 
    4.9000     2.453m +      +      +      +      +     a+      +      +      + 
    5.0000     2.453m-+------+------+------+------+-----a+------+------+------+-
                      +             +             +             +             + 

b

 
1****** HSPICE -- D-2010.03 32-BIT (Feb 23 2010) linux ******                   
 ******  
 nmos transistor

  ******  operating point information tnom=  25.000 temp=  25.000 *****
 ***** operating point status is all       simulation time is     0.     
    node    =voltage      node    =voltage

 +0:1       =   1.0000  0:2       =   1.0000 


 ****  voltage sources

 subckt                        
 element  0:vds      0:vgs     
  volts      1.0000     1.0000 
  current  -77.7124u    0.     
  power     77.7124u    0.     

     total voltage source power dissipation=   77.7124u       watts




 **** mosfets


 subckt             
 element  0:m1      
 model    0:nch     
 region     Saturati
  id        77.7124u
  ibs        0.     
  ibd      -10.0000f
  vgs        1.0000 
  vds        1.0000 
  vbs        0.     
  vth      133.8819m
  vdsat    866.1181m
  vod      866.1181m
  beta     207.1886u
  gam eff  527.6252m
  gm       179.4498u
  gds        0.     
  gmb       62.1705u
  cdtot     14.9177a
  cgtot      7.5387f
  cstot      7.4588f
  cbtot     64.9754a
  cgs        7.4588f
  cgd       14.9177a




          ***** job concluded
1****** HSPICE -- D-2010.03 32-BIT (Feb 23 2010) linux ******                   
 ******  
 nmos transistor

  ******  job statistics summary tnom=  25.000 temp=  25.000 *****
 
 
 ******  Machine Information  ******
 CPU:
 model name	: Intel(R) Xeon(R) CPU E5-1620 v2 @ 3.70GHz
 cpu MHz	: 1200.000
 
 OS:
 Linux version 2.6.32-642.4.2.el6.x86_64 (mockbuild@worker1.bsys.centos.org) (gc
 c version 4.4.7 20120313 (Red Hat 4.4.7-17) (GCC) ) #1 SMP Tue Aug 23 19:58:13 
 UTC 2016


  ******  HSPICE Threads Information  ******

  Command Line Threads Count                  :     1
  Available CPU Count                         :     8
  Actual Model Evaluation(Load) Threads Count :     1
  Actual Solver Threads Count                 :     1


  ******  Circuit Statistics  ******
  # nodes       =       3 # elements   =       3
  # resistors   =       0 # capacitors =       0 # inductors   =       0
  # mutual_inds =       0 # vccs       =       0 # vcvs        =       0
  # cccs        =       0 # ccvs       =       0 # volt_srcs   =       2
  # curr_srcs   =       0 # diodes     =       0 # bjts        =       0
  # jfets       =       0 # mosfets    =       1 # U elements  =       0
  # T elements  =       0 # W elements =       0 # B elements  =       0
  # S elements  =       0 # P elements =       0 # va device   =       0


  ******  Runtime Statistics (seconds)  ******

  analysis           time    # points   tot. iter  conv.iter
  op point           0.00           1           3
  dc sweep           0.01         255         515
  readin             0.00
  errchk             0.00
  setup              0.00
  output             0.00


           total memory used          160  kbytes
           total cpu time            0.01 seconds
           total elapsed time        0.10 seconds
           job started at     15:56:18 09/29/2016
           job ended   at     15:56:18 09/29/2016


 lic: Release hspice token(s) 
