Using: /usr/bin/time -p /applications/synopsys/2010.03/hspice/hspice/linux/hspice lab1b.lis
 ****** HSPICE -- D-2010.03 32-BIT (Feb 23 2010) linux ******                   
  Copyright (C) 2010 Synopsys, Inc. All Rights Reserved.                        
  Unpublished-rights reserved under US copyright laws.
  This program is protected by law and is subject to the 
  terms and conditions of the license agreement from Synopsys.
  Use of this program is your acceptance to be bound by the 
  license agreement. HSPICE is the trademark of Synopsys, Inc.
  Input File: lab1b.lis                                                         
 lic:  
 lic: FLEXlm: v8.5b 
 lic: USER:   tnguyen1             HOSTNAME: linux60815 
 lic: HOSTID: 3417ebb7eae0         PID:      28057 
 lic: Using FLEXlm license file: 
 lic: 27000@hoth 
 lic: Checkout 1 hspice 
 lic: License/Maintenance for hspice will expire on 13-oct-2017/2016.06 
 lic: FLOATING license(s) on SERVER hoth 
 lic:   
 Init: read install configuration file: /applications/synopsys/2010.03/hspice/hspice/meta.cfg
1****** HSPICE -- D-2010.03 32-BIT (Feb 23 2010) linux ******                   
 ******  
 pmos transistor

  ******  mos   model parameters tnom=  25.000 temp=  25.000 *****
 ***************************************************************************
 *** common model parameters  model name:   0:pch      model type:pmos   ***
 ***************************************************************************
     names  values   units     names  values   units     names  values   units
     -----  ------   -----     -----  ------   -----     -----  ------   -----

   1*** geometry parameters ***
       ld=   0.    meters      lmlt=   1.00                wd=   0.    meters 
     wmlt=   1.00                xl=   0.    meters        xw=   0.    meters 
     lref=   0.    meters      wref=   0.    meters      lref=   0.    meters 
     wref=   0.    meters     xlref=   0.    meters     xwref=   0.    meters 
     lmin=   0.    meters      wmin=   0.    meters      lmax=   0.    meters 
     wmax=   0.    meters 

   2*** threshold voltage parameters ***
      vto=-133.88m volts        nss=   0.    1/cm**2      tpg=   1.00         
      phi= 579.84m volts      gamma= 527.63m v**0.5      bulk=  gnd           
    ngate=   0.    cm**3       nsub= 1.0e+15 1/cm**3   delvto=   0.    volts  

   3*** gate overlap capacitance parameters ***
     cgbo=   0.    f/meter     cgdo=   0.    f/meter     cgso=   0.    f/meter
     meto=   0.    meters 

   4*** gate capacitance parameters ***
    capop=   2.00               cf1=   0.    volts        cf2= 100.00m volts  
      cf3=   1.00  volts        cf4=  50.00               cf5= 666.67m        
      cf6= 500.00               xqc= 500.00m              tox= 100.00n meters 
      cox= 345.31u f/m**2 

   5*** diffusion parasitic parameters ***
      acm=   0.                  is=  10.00f amps          js=   0.    a/m**2 
      jsw=   0.    amp/m        nds=   1.00               cbd=   0.    farad  
      cbs=   0.    farad         cj= 101.85u f/m**2      cjsw=   0.    f/m    
   cjgate=   0.    f/m           mj= 500.00m             mjsw= 330.00m        
       pb= 800.00m volts        php= 800.00m volts         tt=   0.    secs   
     hdif=   0.    meters      ldif=   0.    meters        rd=   0.    ohms   
       rs=   0.    ohms         rsh=   0.    ohms/sq       fc=   0.           
    alpha=   0.                 vcr=   0.    volts      iirat=   0.           
      rdc=   0.    ohms         rsc=   0.    ohms           n=   1.00         
     vnds=  -1.00  volts  

   6*** temperature effect parameters ***
     tlev=   0.               tlevc=   0.                  eg=   1.11  ev     
     gap1= 702.00u ev/deg      gap2=   1.11k deg          xti=   0.           
      bex=  -1.50               tcv=   0.    v/deg k      trd=   0.    /deg   
      trs=   0.    /deg         cta=   0.    /deg         ctp=   0.    /deg   

   7*** noise parameters ***
       kf=   0.                  af=   1.00              nlev=   2.00         
   gdsnoi=   1.00         

   ***  level  1  model parameters  ***

   lambda=   0.    /v            kp=   8.63u a/v**2 
 
      
 *****************************************************************
 ******  option summary
 ******
 runlvl  = 3         bypass  = 2         
 ******  
 pmos transistor

  ******  dc transfer curves tnom=  25.000 temp=  25.000 *****

   *** source        0:vgs              =   -1.0000        ***


a


      volt       id(m1)
 (a       )     -40.0000u     -30.0000u     -20.0000u     -10.0000u      0.     
                      +             +             +             +             + 
    0.         0.    -+------+------+------+------+------+------+------+------a-
 -100.0000m   -7.045u +      +      +      +      +      +      +   a  +      + 
 -200.0000m  -13.228u +      +      +      +      +      + a    +      +      + 
 -300.0000m  -18.546u +      +      +      +      + a    +      +      +      + 
 -400.0000m  -23.002u +      +      +      +  a   +      +      +      +      + 
 -500.0000m  -26.594u +      +      +    a +      +      +      +      +      + 
 -600.0000m  -29.323u +      +      +a     +      +      +      +      +      + 
 -700.0000m  -31.189u +      +    a +      +      +      +      +      +      + 
 -800.0000m  -32.191u +      +   a  +      +      +      +      +      +      + 
 -900.0000m  -32.380u +      +   a  +      +      +      +      +      +      + 
   -1.0000   -32.380u-+------+---a--+------+------+------+------+------+------+-
   -1.1000   -32.380u +      +   a  +      +      +      +      +      +      + 
   -1.2000   -32.380u +      +   a  +      +      +      +      +      +      + 
   -1.3000   -32.380u +      +   a  +      +      +      +      +      +      + 
   -1.4000   -32.380u +      +   a  +      +      +      +      +      +      + 
   -1.5000   -32.380u +      +   a  +      +      +      +      +      +      + 
   -1.6000   -32.380u +      +   a  +      +      +      +      +      +      + 
   -1.7000   -32.380u +      +   a  +      +      +      +      +      +      + 
   -1.8000   -32.380u +      +   a  +      +      +      +      +      +      + 
   -1.9000   -32.380u +      +   a  +      +      +      +      +      +      + 
   -2.0000   -32.380u-+------+---a--+------+------+------+------+------+------+-
   -2.1000   -32.380u +      +   a  +      +      +      +      +      +      + 
   -2.2000   -32.380u +      +   a  +      +      +      +      +      +      + 
   -2.3000   -32.380u +      +   a  +      +      +      +      +      +      + 
   -2.4000   -32.380u +      +   a  +      +      +      +      +      +      + 
   -2.5000   -32.380u +      +   a  +      +      +      +      +      +      + 
   -2.6000   -32.380u +      +   a  +      +      +      +      +      +      + 
   -2.7000   -32.380u +      +   a  +      +      +      +      +      +      + 
   -2.8000   -32.380u +      +   a  +      +      +      +      +      +      + 
   -2.9000   -32.380u +      +   a  +      +      +      +      +      +      + 
   -3.0000   -32.380u-+------+---a--+------+------+------+------+------+------+-
   -3.1000   -32.380u +      +   a  +      +      +      +      +      +      + 
   -3.2000   -32.380u +      +   a  +      +      +      +      +      +      + 
   -3.3000   -32.380u +      +   a  +      +      +      +      +      +      + 
   -3.4000   -32.380u +      +   a  +      +      +      +      +      +      + 
   -3.5000   -32.380u +      +   a  +      +      +      +      +      +      + 
   -3.6000   -32.380u +      +   a  +      +      +      +      +      +      + 
   -3.7000   -32.380u +      +   a  +      +      +      +      +      +      + 
   -3.8000   -32.380u +      +   a  +      +      +      +      +      +      + 
   -3.9000   -32.380u +      +   a  +      +      +      +      +      +      + 
   -4.0000   -32.380u-+------+---a--+------+------+------+------+------+------+-
   -4.1000   -32.380u +      +   a  +      +      +      +      +      +      + 
   -4.2000   -32.380u +      +   a  +      +      +      +      +      +      + 
   -4.3000   -32.380u +      +   a  +      +      +      +      +      +      + 
   -4.4000   -32.380u +      +   a  +      +      +      +      +      +      + 
   -4.5000   -32.380u +      +   a  +      +      +      +      +      +      + 
   -4.6000   -32.380u +      +   a  +      +      +      +      +      +      + 
   -4.7000   -32.380u +      +   a  +      +      +      +      +      +      + 
   -4.8000   -32.380u +      +   a  +      +      +      +      +      +      + 
   -4.9000   -32.380u +      +   a  +      +      +      +      +      +      + 
   -5.0000   -32.380u-+------+---a--+------+------+------+------+------+------+-
                      +             +             +             +             + 

b

 ******  
 pmos transistor

  ******  dc transfer curves tnom=  25.000 temp=  25.000 *****

   *** source        0:vgs              =   -2.0000        ***


a


      volt       id(m1)
 (a       )    -200.0000u    -150.0000u    -100.0000u     -50.0000u      0.     
                      +             +             +             +             + 
    0.         0.    -+------+------+------+------+------+------+------+------a-
 -100.0000m  -15.678u +      +      +      +      +      +      +      +  a   + 
 -200.0000m  -30.493u +      +      +      +      +      +      +    a +      + 
 -300.0000m  -44.445u +      +      +      +      +      +      + a    +      + 
 -400.0000m  -57.533u +      +      +      +      +      +    a +      +      + 
 -500.0000m  -69.759u +      +      +      +      +      +a     +      +      + 
 -600.0000m  -81.120u +      +      +      +      +    a +      +      +      + 
 -700.0000m  -91.619u +      +      +      +      + a    +      +      +      + 
 -800.0000m -101.254u +      +      +      +      a      +      +      +      + 
 -900.0000m -110.026u +      +      +      +   a  +      +      +      +      + 
   -1.0000  -117.935u-+------+------+------+-a----+------+------+------+------+-
   -1.1000  -124.980u +      +      +      a      +      +      +      +      + 
   -1.2000  -131.163u +      +      +    a +      +      +      +      +      + 
   -1.3000  -136.481u +      +      +   a  +      +      +      +      +      + 
   -1.4000  -140.937u +      +      +  a   +      +      +      +      +      + 
   -1.5000  -144.529u +      +      + a    +      +      +      +      +      + 
   -1.6000  -147.258u +      +      +a     +      +      +      +      +      + 
   -1.7000  -149.124u +      +      a      +      +      +      +      +      + 
   -1.8000  -150.127u +      +      a      +      +      +      +      +      + 
   -1.9000  -150.315u +      +      a      +      +      +      +      +      + 
   -2.0000  -150.315u-+------+------a------+------+------+------+------+------+-
   -2.1000  -150.315u +      +      a      +      +      +      +      +      + 
   -2.2000  -150.315u +      +      a      +      +      +      +      +      + 
   -2.3000  -150.315u +      +      a      +      +      +      +      +      + 
   -2.4000  -150.315u +      +      a      +      +      +      +      +      + 
   -2.5000  -150.315u +      +      a      +      +      +      +      +      + 
   -2.6000  -150.315u +      +      a      +      +      +      +      +      + 
   -2.7000  -150.315u +      +      a      +      +      +      +      +      + 
   -2.8000  -150.315u +      +      a      +      +      +      +      +      + 
   -2.9000  -150.315u +      +      a      +      +      +      +      +      + 
   -3.0000  -150.315u-+------+------a------+------+------+------+------+------+-
   -3.1000  -150.315u +      +      a      +      +      +      +      +      + 
   -3.2000  -150.315u +      +      a      +      +      +      +      +      + 
   -3.3000  -150.315u +      +      a      +      +      +      +      +      + 
   -3.4000  -150.315u +      +      a      +      +      +      +      +      + 
   -3.5000  -150.315u +      +      a      +      +      +      +      +      + 
   -3.6000  -150.315u +      +      a      +      +      +      +      +      + 
   -3.7000  -150.315u +      +      a      +      +      +      +      +      + 
   -3.8000  -150.315u +      +      a      +      +      +      +      +      + 
   -3.9000  -150.315u +      +      a      +      +      +      +      +      + 
   -4.0000  -150.315u-+------+------a------+------+------+------+------+------+-
   -4.1000  -150.315u +      +      a      +      +      +      +      +      + 
   -4.2000  -150.315u +      +      a      +      +      +      +      +      + 
   -4.3000  -150.315u +      +      a      +      +      +      +      +      + 
   -4.4000  -150.315u +      +      a      +      +      +      +      +      + 
   -4.5000  -150.315u +      +      a      +      +      +      +      +      + 
   -4.6000  -150.315u +      +      a      +      +      +      +      +      + 
   -4.7000  -150.315u +      +      a      +      +      +      +      +      + 
   -4.8000  -150.315u +      +      a      +      +      +      +      +      + 
   -4.9000  -150.315u +      +      a      +      +      +      +      +      + 
   -5.0000  -150.315u-+------+------a------+------+------+------+------+------+-
                      +             +             +             +             + 

b

 ******  
 pmos transistor

  ******  dc transfer curves tnom=  25.000 temp=  25.000 *****

   *** source        0:vgs              =   -3.0000        ***


a


      volt       id(m1)
 (a       )    -400.0000u    -300.0000u    -200.0000u    -100.0000u      0.     
                      +             +             +             +             + 
    0.         0.    -+------+------+------+------+------+------+------+------a-
 -100.0000m  -24.311u +      +      +      +      +      +      +      +   a  + 
 -200.0000m  -47.759u +      +      +      +      +      +      +      a      + 
 -300.0000m  -70.344u +      +      +      +      +      +      +   a  +      + 
 -400.0000m  -92.065u +      +      +      +      +      +      +a     +      + 
 -500.0000m -112.923u +      +      +      +      +      +    a +      +      + 
 -600.0000m -132.918u +      +      +      +      +      + a    +      +      + 
 -700.0000m -152.049u +      +      +      +      +      a      +      +      + 
 -800.0000m -170.317u +      +      +      +      +   a  +      +      +      + 
 -900.0000m -187.722u +      +      +      +      + a    +      +      +      + 
   -1.0000  -204.264u-+------+------+------+-----a+------+------+------+------+-
   -1.1000  -219.942u +      +      +      +   a  +      +      +      +      + 
   -1.2000  -234.757u +      +      +      + a    +      +      +      +      + 
   -1.3000  -248.709u +      +      +      a      +      +      +      +      + 
   -1.4000  -261.797u +      +      +    a +      +      +      +      +      + 
   -1.5000  -274.022u +      +      +   a  +      +      +      +      +      + 
   -1.6000  -285.384u +      +      + a    +      +      +      +      +      + 
   -1.7000  -295.883u +      +      +a     +      +      +      +      +      + 
   -1.8000  -305.518u +      +     a+      +      +      +      +      +      + 
   -1.9000  -314.290u +      +    a +      +      +      +      +      +      + 
   -2.0000  -322.199u-+------+---a--+------+------+------+------+------+------+-
   -2.1000  -329.244u +      +  a   +      +      +      +      +      +      + 
   -2.2000  -335.426u +      + a    +      +      +      +      +      +      + 
   -2.3000  -340.745u +      +a     +      +      +      +      +      +      + 
   -2.4000  -345.201u +      +a     +      +      +      +      +      +      + 
   -2.5000  -348.793u +      a      +      +      +      +      +      +      + 
   -2.6000  -351.522u +      a      +      +      +      +      +      +      + 
   -2.7000  -353.388u +      a      +      +      +      +      +      +      + 
   -2.8000  -354.390u +     a+      +      +      +      +      +      +      + 
   -2.9000  -354.579u +     a+      +      +      +      +      +      +      + 
   -3.0000  -354.579u-+-----a+------+------+------+------+------+------+------+-
   -3.1000  -354.579u +     a+      +      +      +      +      +      +      + 
   -3.2000  -354.579u +     a+      +      +      +      +      +      +      + 
   -3.3000  -354.579u +     a+      +      +      +      +      +      +      + 
   -3.4000  -354.579u +     a+      +      +      +      +      +      +      + 
   -3.5000  -354.579u +     a+      +      +      +      +      +      +      + 
   -3.6000  -354.579u +     a+      +      +      +      +      +      +      + 
   -3.7000  -354.579u +     a+      +      +      +      +      +      +      + 
   -3.8000  -354.579u +     a+      +      +      +      +      +      +      + 
   -3.9000  -354.579u +     a+      +      +      +      +      +      +      + 
   -4.0000  -354.579u-+-----a+------+------+------+------+------+------+------+-
   -4.1000  -354.579u +     a+      +      +      +      +      +      +      + 
   -4.2000  -354.579u +     a+      +      +      +      +      +      +      + 
   -4.3000  -354.579u +     a+      +      +      +      +      +      +      + 
   -4.4000  -354.579u +     a+      +      +      +      +      +      +      + 
   -4.5000  -354.579u +     a+      +      +      +      +      +      +      + 
   -4.6000  -354.579u +     a+      +      +      +      +      +      +      + 
   -4.7000  -354.579u +     a+      +      +      +      +      +      +      + 
   -4.8000  -354.579u +     a+      +      +      +      +      +      +      + 
   -4.9000  -354.579u +     a+      +      +      +      +      +      +      + 
   -5.0000  -354.579u-+-----a+------+------+------+------+------+------+------+-
                      +             +             +             +             + 

b

 ******  
 pmos transistor

  ******  dc transfer curves tnom=  25.000 temp=  25.000 *****

   *** source        0:vgs              =   -4.0000        ***


a


      volt       id(m1)
 (a       )    -800.0000u    -600.0000u    -400.0000u    -200.0000u      0.     
                      +             +             +             +             + 
    0.         0.    -+------+------+------+------+------+------+------+------a-
 -100.0000m  -32.944u +      +      +      +      +      +      +      +    a + 
 -200.0000m  -65.025u +      +      +      +      +      +      +      + a    + 
 -300.0000m  -96.242u +      +      +      +      +      +      +      a      + 
 -400.0000m -126.596u +      +      +      +      +      +      +    a +      + 
 -500.0000m -156.087u +      +      +      +      +      +      +  a   +      + 
 -600.0000m -184.715u +      +      +      +      +      +      +a     +      + 
 -700.0000m -212.479u +      +      +      +      +      +     a+      +      + 
 -800.0000m -239.380u +      +      +      +      +      +   a  +      +      + 
 -900.0000m -265.418u +      +      +      +      +      + a    +      +      + 
   -1.0000  -290.592u-+------+------+------+------+------+a-----+------+------+-
   -1.1000  -314.903u +      +      +      +      +     a+      +      +      + 
   -1.2000  -338.351u +      +      +      +      +   a  +      +      +      + 
   -1.3000  -360.936u +      +      +      +      +  a   +      +      +      + 
   -1.4000  -382.657u +      +      +      +      +a     +      +      +      + 
   -1.5000  -403.515u +      +      +      +      a      +      +      +      + 
   -1.6000  -423.510u +      +      +      +    a +      +      +      +      + 
   -1.7000  -442.641u +      +      +      +   a  +      +      +      +      + 
   -1.8000  -460.909u +      +      +      +  a   +      +      +      +      + 
   -1.9000  -478.314u +      +      +      + a    +      +      +      +      + 
   -2.0000  -494.856u-+------+------+------a------+------+------+------+------+-
   -2.1000  -510.534u +      +      +     a+      +      +      +      +      + 
   -2.2000  -525.349u +      +      +    a +      +      +      +      +      + 
   -2.3000  -539.301u +      +      +   a  +      +      +      +      +      + 
   -2.4000  -552.389u +      +      +  a   +      +      +      +      +      + 
   -2.5000  -564.614u +      +      + a    +      +      +      +      +      + 
   -2.6000  -575.976u +      +      + a    +      +      +      +      +      + 
   -2.7000  -586.475u +      +      +a     +      +      +      +      +      + 
   -2.8000  -596.110u +      +      a      +      +      +      +      +      + 
   -2.9000  -604.882u +      +      a      +      +      +      +      +      + 
   -3.0000  -612.791u-+------+-----a+------+------+------+------+------+------+-
   -3.1000  -619.836u +      +     a+      +      +      +      +      +      + 
   -3.2000  -626.019u +      +    a +      +      +      +      +      +      + 
   -3.3000  -631.337u +      +    a +      +      +      +      +      +      + 
   -3.4000  -635.793u +      +   a  +      +      +      +      +      +      + 
   -3.5000  -639.385u +      +   a  +      +      +      +      +      +      + 
   -3.6000  -642.114u +      +   a  +      +      +      +      +      +      + 
   -3.7000  -643.980u +      +   a  +      +      +      +      +      +      + 
   -3.8000  -644.982u +      +   a  +      +      +      +      +      +      + 
   -3.9000  -645.171u +      +   a  +      +      +      +      +      +      + 
   -4.0000  -645.171u-+------+---a--+------+------+------+------+------+------+-
   -4.1000  -645.171u +      +   a  +      +      +      +      +      +      + 
   -4.2000  -645.171u +      +   a  +      +      +      +      +      +      + 
   -4.3000  -645.171u +      +   a  +      +      +      +      +      +      + 
   -4.4000  -645.171u +      +   a  +      +      +      +      +      +      + 
   -4.5000  -645.171u +      +   a  +      +      +      +      +      +      + 
   -4.6000  -645.171u +      +   a  +      +      +      +      +      +      + 
   -4.7000  -645.171u +      +   a  +      +      +      +      +      +      + 
   -4.8000  -645.171u +      +   a  +      +      +      +      +      +      + 
   -4.9000  -645.171u +      +   a  +      +      +      +      +      +      + 
   -5.0000  -645.171u-+------+---a--+------+------+------+------+------+------+-
                      +             +             +             +             + 

b

 ******  
 pmos transistor

  ******  dc transfer curves tnom=  25.000 temp=  25.000 *****

   *** source        0:vgs              =   -5.0000        ***


a


      volt       id(m1)
 (a       )      -1.5000m      -1.0000m    -500.0000u       0.         500.0000u
                      +             +             +             +             + 
    0.         0.    -+------+------+------+------+------+------a------+------+-
 -100.0000m  -41.577u +      +      +      +      +      +     a+      +      + 
 -200.0000m  -82.290u +      +      +      +      +      +    a +      +      + 
 -300.0000m -122.141u +      +      +      +      +      +   a  +      +      + 
 -400.0000m -161.128u +      +      +      +      +      + a    +      +      + 
 -500.0000m -199.251u +      +      +      +      +      +a     +      +      + 
 -600.0000m -236.512u +      +      +      +      +      a      +      +      + 
 -700.0000m -272.909u +      +      +      +      +     a+      +      +      + 
 -800.0000m -308.443u +      +      +      +      +    a +      +      +      + 
 -900.0000m -343.114u +      +      +      +      +   a  +      +      +      + 
   -1.0000  -376.921u-+------+------+------+------+--a---+------+------+------+-
   -1.1000  -409.865u +      +      +      +      +  a   +      +      +      + 
   -1.2000  -441.946u +      +      +      +      + a    +      +      +      + 
   -1.3000  -473.163u +      +      +      +      +a     +      +      +      + 
   -1.4000  -503.517u +      +      +      +      a      +      +      +      + 
   -1.5000  -533.008u +      +      +      +     a+      +      +      +      + 
   -1.6000  -561.636u +      +      +      +    a +      +      +      +      + 
   -1.7000  -589.400u +      +      +      +   a  +      +      +      +      + 
   -1.8000  -616.301u +      +      +      +   a  +      +      +      +      + 
   -1.9000  -642.339u +      +      +      +  a   +      +      +      +      + 
   -2.0000  -667.513u-+------+------+------+-a----+------+------+------+------+-
   -2.1000  -691.824u +      +      +      + a    +      +      +      +      + 
   -2.2000  -715.272u +      +      +      +a     +      +      +      +      + 
   -2.3000  -737.857u +      +      +      a      +      +      +      +      + 
   -2.4000  -759.578u +      +      +      a      +      +      +      +      + 
   -2.5000  -780.436u +      +      +     a+      +      +      +      +      + 
   -2.6000  -800.431u +      +      +     a+      +      +      +      +      + 
   -2.7000  -819.562u +      +      +    a +      +      +      +      +      + 
   -2.8000  -837.830u +      +      +    a +      +      +      +      +      + 
   -2.9000  -855.235u +      +      +   a  +      +      +      +      +      + 
   -3.0000  -871.777u-+------+------+---a--+------+------+------+------+------+-
   -3.1000  -887.455u +      +      +  a   +      +      +      +      +      + 
   -3.2000  -902.270u +      +      +  a   +      +      +      +      +      + 
   -3.3000  -916.222u +      +      + a    +      +      +      +      +      + 
   -3.4000  -929.310u +      +      + a    +      +      +      +      +      + 
   -3.5000  -941.535u +      +      + a    +      +      +      +      +      + 
   -3.6000  -952.897u +      +      +a     +      +      +      +      +      + 
   -3.7000  -963.396u +      +      +a     +      +      +      +      +      + 
   -3.8000  -973.031u +      +      +a     +      +      +      +      +      + 
   -3.9000  -981.803u +      +      +a     +      +      +      +      +      + 
   -4.0000  -989.712u-+------+------a------+------+------+------+------+------+-
   -4.1000  -996.757u +      +      a      +      +      +      +      +      + 
   -4.2000    -1.003m +      +      a      +      +      +      +      +      + 
   -4.3000    -1.008m +      +      a      +      +      +      +      +      + 
   -4.4000    -1.013m +      +      a      +      +      +      +      +      + 
   -4.5000    -1.016m +      +      a      +      +      +      +      +      + 
   -4.6000    -1.019m +      +     a+      +      +      +      +      +      + 
   -4.7000    -1.021m +      +     a+      +      +      +      +      +      + 
   -4.8000    -1.022m +      +     a+      +      +      +      +      +      + 
   -4.9000    -1.022m +      +     a+      +      +      +      +      +      + 
   -5.0000    -1.022m-+------+-----a+------+------+------+------+------+------+-
                      +             +             +             +             + 

b

 
1****** HSPICE -- D-2010.03 32-BIT (Feb 23 2010) linux ******                   
 ******  
 pmos transistor

  ******  operating point information tnom=  25.000 temp=  25.000 *****
 ***** operating point status is all       simulation time is     0.     
    node    =voltage      node    =voltage

 +0:1       =   1.0000  0:2       =   1.0000 


 ****  voltage sources

 subckt                        
 element  0:vds      0:vgs     
  volts      1.0000     1.0000 
  current -801.6450     0.     
  power    801.6450     0.     

     total voltage source power dissipation=  801.6450        watts




 **** mosfets


 subckt             
 element  0:m1      
 model    0:pch     
 region     Saturati
  id         1.9504u
  ibs        0.     
  ibd     -801.6450 
  vgs        1.0000 
  vds        1.0000 
  vbs        0.     
  vth      212.5686m
  vdsat   -212.5686m
  vod      787.4314m
  beta      86.3286u
  gam eff  527.6252m
  gm        18.3507u
  gds        0.     
  gmb       46.1721u
  cdtot      7.4588f
  cgtot     18.6619f
  cstot     14.9177a
  cbtot     11.1882f
  cgs       14.9177a
  cgd        7.4588f




          ***** job concluded
1****** HSPICE -- D-2010.03 32-BIT (Feb 23 2010) linux ******                   
 ******  
 pmos transistor

  ******  job statistics summary tnom=  25.000 temp=  25.000 *****
 
 
 ******  Machine Information  ******
 CPU:
 model name	: Intel(R) Xeon(R) CPU E5-1620 v2 @ 3.70GHz
 cpu MHz	: 1200.000
 
 OS:
 Linux version 2.6.32-642.4.2.el6.x86_64 (mockbuild@worker1.bsys.centos.org) (gc
 c version 4.4.7 20120313 (Red Hat 4.4.7-17) (GCC) ) #1 SMP Tue Aug 23 19:58:13 
 UTC 2016


  ******  HSPICE Threads Information  ******

  Command Line Threads Count                  :     1
  Available CPU Count                         :     8
  Actual Model Evaluation(Load) Threads Count :     1
  Actual Solver Threads Count                 :     1


  ******  Circuit Statistics  ******
  # nodes       =       3 # elements   =       3
  # resistors   =       0 # capacitors =       0 # inductors   =       0
  # mutual_inds =       0 # vccs       =       0 # vcvs        =       0
  # cccs        =       0 # ccvs       =       0 # volt_srcs   =       2
  # curr_srcs   =       0 # diodes     =       0 # bjts        =       0
  # jfets       =       0 # mosfets    =       1 # U elements  =       0
  # T elements  =       0 # W elements =       0 # B elements  =       0
  # S elements  =       0 # P elements =       0 # va device   =       0


  ******  Runtime Statistics (seconds)  ******

  analysis           time    # points   tot. iter  conv.iter
  op point           0.00           1           3
  dc sweep           0.00         255         515
  readin             0.00
  errchk             0.00
  setup              0.01
  output             0.00


           total memory used          160  kbytes
           total cpu time            0.01 seconds
           total elapsed time        0.10 seconds
           job started at     15:59:11 09/29/2016
           job ended   at     15:59:11 09/29/2016


 lic: Release hspice token(s) 
